LAMMPS (3 Mar 2020)
clear
# --------------------- VARIABLES-------------------------
variable        NSTEPS          equal 1000
variable        THERMO_FREQ     equal 10
variable        DUMP_FREQ       equal 100
variable        NREPEAT         equal 1000/100
variable        TEMP            equal 400.000000
variable        PRES            equal 200000.000000
variable        TAU_T           equal 0.200000
variable        TAU_P           equal 2.000000
# ---------------------- INITIALIZAITION ------------------
units           metal
boundary        p p p
atom_style      atomic
# --------------------- ATOM DEFINITION ------------------
box             tilt large
read_data       conf.lmp
  triclinic box = (0.0700832 0.0700832 0.050971) to (17.6779 17.6779 12.857) with tilt (0 0 0)
  reading atoms ...
  144 atoms
  reading velocities ...
  144 velocities
change_box      all triclinic
  triclinic box = (0.0700832 0.0700832 0.050971) to (17.6779 17.6779 12.857) with tilt (0 0 0)
mass            1 118.710000
# --------------------- FORCE FIELDS ---------------------
pair_style      deepmd graph.pb
pair_coeff
# --------------------- MD SETTINGS ----------------------
neighbor        1.0 bin
timestep        0.002000
thermo          10
compute         allmsd all msd
thermo_style    custom step ke pe etotal enthalpy temp press vol lx ly lz xy xz yz pxx pyy pzz pxy pxz pyz c_allmsd[*]
dump            1 all custom 100 dump.equi id type x y z vx vy vz
fix             1 all npt temp 400 400 0.2 aniso 200000 200000 2 couple xy
fix             mzero all momentum 10 linear 1 1 1
# --------------------- INITIALIZE -----------------------
velocity        all create 400 7858
velocity        all zero linear
# --------------------- RUN ------------------------------
run             1000
  update every 1 steps, delay 10 steps, check yes
Step KinEng PotEng TotEng Enthalpy Temp Press Volume Lx Ly Lz Xy Xz Yz Pxx Pyy Pzz Pxy Pxz Pyz c_allmsd[1] c_allmsd[2] c_allmsd[3] c_allmsd[4]
0    7.3936803   -5157.7512   -5150.3576   -5145.4284          400    1989.0809    3970.3364    17.607834    17.607834    12.806058            0            0            0    5434.9886     5221.111   -4688.8567   -375.41916    200.80326   -149.29119            0            0            0            0
Averages over the last 51 of 101 rows, steps 500 to 1000:
KinEng PotEng TotEng Enthalpy Temp Press Volume Lx Ly Lz Xy Xz Yz Pxx Pyy Pzz Pxy Pxz Pyz c_allmsd[1] c_allmsd[2] c_allmsd[3] c_allmsd[4]
7.37242 -5113.57 -5106.2 -4706.44 398.85 200105 3200.87 16.461 16.461 11.8129 0 0 0 200968 199103 200245 -167.394 178.284 -341.272 0.126001 0.126787 0.0957206 0.348508
Loop time of 9.96416 on 1 procs for 1000 steps with 144 atoms

write_data      out.lmp

Please see the log.cite file for references relevant to this simulation
